** written by FreeCAD inp file writer for CalculiX,Abaqus meshes
** highest dimension mesh elements only.

** Nodes
*Node, NSET=Nall
1, -60.08411, -300, -60.542667
2, -60.08411, -4.032951772537e-014, -60.542667
3, 59.572491, -300, -60.542667
4, 59.572491, -4.032951772537e-014, -60.542667
5, 59.572491, -300, 59.888409
6, 59.572491, 3.989369434798e-014, 59.888409
7, -60.08411, -300, 59.888409
8, -60.08411, 3.989369434798e-014, 59.888409
9, -50.032955516, -300, 59.888409
10, -40.101457633, -300, 59.888409
11, -30.16995975, -300, 59.888409
12, -20.118805266, -300, 59.888409
13, -10.187307383, -300, 59.888409
14, -0.2558095, -300, 59.888409
15, 9.795344984, -300, 59.888409
16, 19.726842867, -300, 59.888409
17, 29.65834075, -300, 59.888409
18, 39.709495234, -300, 59.888409
19, 49.640993117, -300, 59.888409
20, 59.572491, -300, 49.772198616
** ... 5502 like lines cut


** Volume elements
*Element, TYPE=C3D4, ELSET=Evolumes
4163, 5494, 5516, 4079, 5522
4164, 2795, 1069, 957, 2879
4165, 2331, 3793, 2869, 2339
4166, 2131, 2132, 4253, 4252
4167, 2273, 2022, 4674, 2274
4168, 1978, 3775, 3774, 5253
4169, 2075, 5522, 5516, 4080
4170, 3864, 3862, 2067, 3863
4171, 2312, 216, 1683, 2311
4172, 1160, 3119, 1205, 3050
4173, 2495, 2055, 2494, 393
4174, 4080, 5516, 5499, 5522
4175, 5499, 5516, 5494, 5522
4176, 4426, 4424, 2752, 4427
4177, 227, 1312, 2320, 23
4178, 3830, 2417, 4831, 4850
4179, 424, 406, 2030, 367
4180, 2035, 4458, 4456, 3968
4181, 5202, 2819, 5102, 5139
4182, 837, 860, 5019, 832
** ... 26420 like lines cut

** Define element set Eall
*ELSET, ELSET=Eall
Evolumes



***********************************************************
** Element sets for materials and FEM element type (solid, shell, beam, fluid)
** written by write_element_sets_material_and_femelement_type function
*ELSET,ELSET=SolidMaterialSolid
Evolumes

***********************************************************
** Node sets for fixed constraint
** written by write_node_sets_constraints_fixed function
** FemConstraintFixed
*NSET,NSET=FemConstraintFixed
2,
4,
6,
8,
53,
54,
55,
56,
57,
58,
59,
60,
61,
62,
63,
64,
65,
66,
67,
68,
** ... 162 like lines cut

***********************************************************
** Materials
** written by write_materials function
** Young's modulus unit is MPa = N/mm2
** FreeCAD material name: None
** SolidMaterial
*MATERIAL, NAME=SolidMaterial
*ELASTIC
1, 0.300

***********************************************************
** Sections
** written by write_femelementsets function
*SOLID SECTION, ELSET=SolidMaterialSolid, MATERIAL=SolidMaterial

***********************************************************
** At least one step is needed to run an CalculiX analysis of FreeCAD
** written by write_step_begin function
*STEP
*STATIC


***********************************************************
** Fixed Constraints
** written by write_constraints_fixed function
** FemConstraintFixed
*BOUNDARY
FemConstraintFixed,1
FemConstraintFixed,2
FemConstraintFixed,3


***********************************************************
** Node loads Constraints
** written by write_constraints_force function
*CLOAD
** FemConstraintForce
** node loads on shape: Pad:Face6
1,2,-1.0453029689444E-18
1,3,-1.5692086871424E-03
3,2,-7.7404749276866E-19
3,3,-1.1620000000000E-03
5,2,-1.3714817378263E-18
5,3,-2.0588682144734E-03
7,2,-7.7404749276866E-19
7,3,-1.1620000000000E-03
9,2,-2.5784871544322E-18
9,3,-3.8708245959601E-03
10,2,-2.2341757016877E-18
10,3,-3.3539442858670E-03
11,2,-2.0434768010979E-18
11,3,-3.0676671199883E-03
12,2,-1.9527053137104E-18
12,3,-2.9314009743969E-03
13,2,-1.9116323024182E-18
13,3,-2.8697421749467E-03
14,2,-1.9075511943855E-18
14,3,-2.8636156160749E-03
** ... 382 like lines cut



***********************************************************
** Outputs --> frd file
** written by write_outputs_types function
*NODE FILE
U
*EL FILE
S, E
** outputs --> dat file
*NODE PRINT , NSET=Nall
U 
*EL PRINT , ELSET=Eall
S 

***********************************************************
** written by write_step_end function
*END STEP 

***********************************************************
** CalculiX Input file
** written by write_footer function
**   written by    --> FreeCAD 0.17.13541 (Git)
**   written on    --> Mon Apr 08 22:08:56 2019
**   file name     --> 
**   analysis name --> Analysis
**
**
**
**   Units
**
**   Geometry (mesh data)        --> mm
**   Materials (Young's modulus) --> N/mm2 = MPa
**   Loads (nodal loads)         --> N
**
