** 1-element C3D20 test cube, generated from Ferrite's SerendipityQuadraticHexahedron grid
** so node/cell ordering is guaranteed compatible with Ferrite 1.x.
*Node, NSET=Nall
1, -1.0, -1.0, -1.0
2, 0.0, -1.0, -1.0
3, 1.0, -1.0, -1.0
4, -1.0, 0.0, -1.0
5, 1.0, 0.0, -1.0
6, -1.0, 1.0, -1.0
7, 0.0, 1.0, -1.0
8, 1.0, 1.0, -1.0
9, -1.0, -1.0, 0.0
10, 1.0, -1.0, 0.0
11, -1.0, 1.0, 0.0
12, 1.0, 1.0, 0.0
13, -1.0, -1.0, 1.0
14, 0.0, -1.0, 1.0
15, 1.0, -1.0, 1.0
16, -1.0, 0.0, 1.0
17, 1.0, 0.0, 1.0
18, -1.0, 1.0, 1.0
19, 0.0, 1.0, 1.0
20, 1.0, 1.0, 1.0
*Element, TYPE=C3D20, ELSET=Evolumes
1, 1, 3, 8, 6, 13, 15, 20, 18, 2, 5, 7, 4, 14, 17, 19, 16, 9, 10, 12, 11
*ELSET, ELSET=Eall
Evolumes
*ELSET,ELSET=SolidMaterialSolid
Evolumes
** Node set for fixed boundary (z = -1)
*NSET,NSET=FixedBase
1, 2, 3, 4, 5, 6, 7, 8
** Node set for applied load (z = +1)
*NSET,NSET=LoadNode
19
*MATERIAL, NAME=SolidMaterial
*ELASTIC, TYPE=ISO
1000.0, 0.3
*DENSITY
1.0
** Concentrated load on the top-center node
*CLOAD
19, 2, -1.0
** Fixed displacement on bottom face
*BOUNDARY
FixedBase,1
FixedBase,2
FixedBase,3
*END STEP
