*Heading
** Job name: SampleAnalysis Model name: Model-1
*Preprint, echo=NO, model=NO, history=NO, contact=NO
*Node, NSET=Nall
1, 0.0, 0.0
2, 5.0, 0.0
3, 10.0, 0.0
4, 15.0, 0.0
5, 20.0, 0.0
6, 25.0, 0.0
7, 30.0, 0.0
8, 35.0, 0.0
9, 40.0, 0.0
10, 45.0, 0.0
11, 50.0, 0.0
12, 55.0, 0.0
13, 60.0, 0.0
14, 65.0, 0.0
15, 70.0, 0.0
16, 75.0, 0.0
17, 80.0, 0.0
18, 85.0, 0.0
19, 90.0, 0.0
20, 95.0, 0.0
** ... 431 like lines cut
*Element, TYPE=CPS4, ELSET=EALL
1, 1, 2, 43, 42 
2, 2, 3, 44, 43 
3, 3, 4, 45, 44 
4, 4, 5, 46, 45 
5, 5, 6, 47, 46 
6, 6, 7, 48, 47 
7, 7, 8, 49, 48 
8, 8, 9, 50, 49 
9, 9, 10, 51, 50 
10, 10, 11, 52, 51 
11, 11, 12, 53, 52 
12, 12, 13, 54, 53 
13, 13, 14, 55, 54 
14, 14, 15, 56, 55 
15, 15, 16, 57, 56 
16, 16, 17, 58, 57 
17, 17, 18, 59, 58 
18, 18, 19, 60, 59 
19, 19, 20, 61, 60 
20, 20, 21, 62, 61 
** ... 380 like lines cut
*MATERIAL, NAME=Steel
*ELASTIC
42000.0, 0.2
*NSET, NSET=roller_support
1
*NSET, NSET=fixed_support
41
*BOUNDARY
roller_support, 1
fixed_support, 1
fixed_support, 2
*CLOAD
431, 2, -3
*End Step
