*Heading
** Simple test file with triangular elements (CPS3)
** 2D cantilever beam meshed with triangles

*Node, NSET=Nall
1, 0.0, 0.0
2, 10.0, 0.0
3, 20.0, 0.0
4, 30.0, 0.0
5, 40.0, 0.0
6, 50.0, 0.0
7, 60.0, 0.0
8, 0.0, 10.0
9, 10.0, 10.0
10, 20.0, 10.0
11, 30.0, 10.0
12, 40.0, 10.0
13, 50.0, 10.0
14, 60.0, 10.0
15, 0.0, 20.0
16, 10.0, 20.0
17, 20.0, 20.0
18, 30.0, 20.0
19, 40.0, 20.0
20, 50.0, 20.0
** ... 22 like lines cut
*Element, TYPE=CPS3, ELSET=Eall
1, 1, 2, 8
2, 2, 9, 8
3, 2, 3, 9
4, 3, 10, 9
5, 3, 4, 10
6, 4, 11, 10
7, 4, 5, 11
8, 5, 12, 11
9, 5, 6, 12
10, 6, 13, 12
11, 6, 7, 13
12, 7, 14, 13
13, 8, 9, 15
14, 9, 16, 15
15, 9, 10, 16
16, 10, 17, 16
17, 10, 11, 17
18, 11, 18, 17
19, 11, 12, 18
20, 12, 19, 18
** ... 40 like lines cut
*MATERIAL, NAME=Steel
*ELASTIC
210000.0, 0.3
*NSET, NSET=fixed_support
1, 8, 15, 22, 29, 36
*NSET, NSET=loaded_node
42
*BOUNDARY
fixed_support, 1
fixed_support, 2
*CLOAD
42, 2, -1000.0
*End Step